TestBoard_V2
*SPICE Netlist generated by Advanced Sim server on 4/27/2025 9:40:49 AM
.options MixedSimGenerated

.SAVE allV
.SAVE allI
.SAVE allP

.PLOT {V(+3.3VDC)} =PLOT(1) =AXIS(1)

*Selected Circuit Analyses:
.TRAN 20.00n 5.000u 0 20.00n
.OP

.END